ipss.test.plugin.core/testData/adpter/psse/v33/SMIB/SMIB_v33_regcb1.raw
0, 100.00, 33, 0, 1, 60.00 / Public synthetic two-bus REGCB1 fixture
INTERPSS / NATIVE REGCB1 CONFORMANCE
0
1,'TYPE 3 WIND',100.0000,2,1,1,1,1.0000,-0.1144,1.1000,0.9000,1.1000,0.9000
2,'INFINITE BUS',100.0000,3,1,1,1,1.0000,-3.0300,1.1000,0.9000,1.1000,0.9000
0 / END OF BUS DATA, BEGIN LOAD DATA
2,'1',1,1,1,100.000,50.000,0.000,0.000,0.000,0.000,1,1,0
0 / END OF LOAD DATA, BEGIN FIXED SHUNT DATA
0 / END OF FIXED SHUNT DATA, BEGIN GENERATOR DATA
1,'1',50.000,0.000,100.000,-100.000,1.00000,0,100.000,0.00000,0.15000,0.00000,0.00000,1.00000,1,100.0,100.000,-100.000,1,1.0000,0,1.0000,0,1.0000,0,1.0000,2,1.0000
2,'1',50.000,52.500,9999.000,-9999.000,1.00000,0,100.000,0.00000,0.05000,0.00000,0.00000,1.00000,1,100.0,9999.000,-9999.000,1,1.0000
0 / END OF GENERATOR DATA, BEGIN BRANCH DATA
1,2,'1',0.00000,0.20000,0.00000,0.00,0.00,0.00,0.00000,0.00000,0.00000,0.00000,1,1,0.00,1,1.0000
1,2,'2',0.00000,0.20000,0.00000,0.00,0.00,0.00,0.00000,0.00000,0.00000,0.00000,1,1,0.00,1,1.0000
0 / END OF BRANCH DATA, BEGIN TRANSFORMER DATA
0 / END OF TRANSFORMER DATA, BEGIN AREA DATA
0 / END OF AREA DATA, BEGIN TWO-TERMINAL DC DATA
0 / END OF TWO-TERMINAL DC DATA, BEGIN VSC DC LINE DATA
0 / END OF IMPEDANCE CORRECTION DATA
0 / END OF MULTI-TERMINAL DC DATA
0 / END OF MULTI-SECTION LINE DATA
0 / END OF ZONE DATA
0 / END OF INTER-AREA TRANSFER DATA
0 / END OF OWNER DATA
0 / END OF FACTS DEVICE DATA
0 / END OF SWITCHED SHUNT DATA
0 / END OF GNE DATA
0 / END OF INDUCTION MACHINE DATA
Q
